EVs_4kW/Output_EVs_4kW/output_current_1.csv
# Output_EVs_4kW\output_current_1.csv run at 2000-01-01 00:01:00 EST on 907 links
link_name,currA_mag,currA_angle,currB_mag,currB_angle,currC_mag,currC_angle
Source_Impedance,13.671021,-0.353778,11.377535,3.784598,12.141831,1.882094
TR1,13.671021,-0.353778,11.377535,3.784598,12.141831,1.882094
LINE1,378.497438,-0.838759,340.552925,3.332485,261.249680,1.248880
LINE2,378.497438,-0.838759,340.552925,3.332485,261.249680,1.248880
LINE3,378.497438,-0.838759,340.552925,3.332485,261.249680,1.248880
LINE4,378.497438,-0.838759,340.552925,3.332485,261.249680,1.248880
LINE5,378.497438,-0.838759,340.552925,3.332485,261.249680,1.248880
LINE6,378.497438,-0.838759,340.552925,3.332485,261.249680,1.248880
LINE7,378.497438,-0.838759,340.552925,3.332485,261.249680,1.248880
LINE8,378.497438,-0.838759,340.552925,3.332485,261.249680,1.248880
LINE9,378.497438,-0.838759,340.552925,3.332485,261.249680,1.248880
LINE10,378.497438,-0.838759,340.552925,3.332485,261.249680,1.248880
LINE11,378.497438,-0.838759,340.552925,3.332485,261.249680,1.248880
LINE12,378.497438,-0.838759,340.552925,3.332485,261.249680,1.248880
LINE13,378.497438,-0.838759,340.552925,3.332485,261.249680,1.248880
LINE14,378.497438,-0.838759,340.552925,3.332485,261.249680,1.248880
LINE15,0.000000,3.704663,0.000000,1.113457,0.000000,1.588807
LINE16,378.497438,-0.838759,340.552925,3.332485,261.249680,1.248880
LINE17,0.000000,3.438411,0.000000,1.082217,0.000000,4.563102
LINE18,378.497438,-0.838759,340.552925,3.332485,261.249680,1.248880
LINE19,0.000000,3.241016,0.000000,0.837238,0.000000,4.593980
LINE20,378.497438,-0.838759,340.552925,3.332485,261.249680,1.248880
LINE21,0.000000,3.361639,0.000000,0.808049,0.000000,4.578515
LINE22,378.497438,-0.838759,340.552925,3.332485,261.249680,1.248880
LINE23,0.000000,3.580308,0.000000,1.005445,0.000000,1.631591
LINE24,378.497438,-0.838759,340.552925,3.332485,261.249680,1.248880
LINE25,0.000000,3.791402,0.000000,0.837238,0.000000,1.597901
LINE26,34.241997,-0.851861,0.000000,3.228701,0.000000,1.518587
LINE27,344.258671,-0.837456,340.552925,3.332485,261.249680,1.248880
LINE28,0.000000,3.791402,0.000000,0.760466,0.000000,1.623831
LINE29,17.120053,-0.851874,0.000000,-0.410552,0.000000,1.567564
LINE30,17.121944,-0.851847,0.000000,3.231583,0.000000,1.514721
LINE31,344.258671,-0.837456,340.552925,3.332485,261.249680,1.248880
LINE32,0.000000,4.043956,0.000000,0.649809,0.000000,1.639341
LINE33,17.120053,-0.851874,0.000000,0.086284,0.000000,-1.520331
LINE34,17.121944,-0.851847,0.000000,2.993420,0.000000,0.873748
LINE35,0.000000,3.491065,34.489938,3.333816,0.000000,-1.511486
LINE36,344.258671,-0.837456,306.063021,3.332334,261.249680,1.248880
LINE37,0.000000,4.001728,0.000000,0.902363,0.000000,1.658236
LINE38,17.121944,-0.851847,0.000000,3.390365,0.000000,4.590679
LINE39,0.000000,3.696062,17.245171,3.333819,0.000000,-1.510706
LINE40,0.000000,3.154723,17.244767,3.333814,0.000000,4.668228
LINE41,344.258671,-0.837456,306.063021,3.332334,261.249680,1.248880
LINE42,0.000000,4.252602,0.000000,-1.179724,0.000000,4.226862
LINE43,0.000000,3.704663,0.000000,0.220047,0.000000,3.116661
LINE44,17.121944,-0.851847,0.000000,2.908995,0.000000,1.666437
LINE45,0.000000,3.164925,17.245171,3.333819,0.000000,-1.445792
LINE46,0.000000,-0.562559,17.244767,3.333814,0.000000,1.717721
LINE47,344.258671,-0.837456,306.063021,3.332334,261.249680,1.248880
LINE48,0.000000,4.363578,0.000000,-1.201456,0.000000,4.427053
LINE49,0.000000,4.099454,0.000000,0.296819,0.000000,3.116661
LINE50,17.121944,-0.851847,0.000000,2.486424,0.000000,4.465337
LINE51,0.000000,2.872789,17.245171,3.333819,0.000000,-1.539226
LINE52,344.258671,-0.837456,306.063021,3.332334,261.249680,1.248880
LINE53,0.000000,3.120952,0.000000,-1.246481,0.000000,-0.934968
LINE54,0.000000,4.553393,0.000000,-1.121165,0.000000,4.602528
LINE55,0.000000,4.188110,0.000000,0.172464,0.000000,1.958275
LINE56,17.121944,-0.851847,0.000000,0.392983,0.000000,1.659943
LINE57,0.000000,3.242560,17.245171,3.333819,0.000000,-1.476436
LINE58,344.258671,-0.837456,306.063021,3.332334,261.249680,1.248880
LINE59,0.000000,3.318546,0.000000,-0.940072,0.000000,-1.569638
LINE60,0.000000,-1.521340,0.000000,-1.378770,0.000000,-1.402991
LINE61,0.000000,4.099454,0.000000,0.438716,0.000000,3.116661
LINE62,17.121944,-0.851847,0.000000,1.194847,0.000000,4.688857
LINE63,0.000000,2.679738,17.245171,3.333819,0.000000,-1.569066
LINE64,309.208926,-0.836518,306.063021,3.332334,261.249680,1.248880
LINE65,35.051083,-0.845738,0.000000,0.256317,0.000000,-0.797138
LINE66,0.000000,3.587535,0.000000,-0.948059,0.000000,0.054882
LINE67,0.000000,-1.341789,0.000000,4.492507,0.000000,4.690212
LINE68,0.000000,4.687457,0.000000,0.220047,0.000000,4.547748
LINE69,17.121944,-0.851847,0.000000,3.486904,0.000000,-1.003368
LINE70,0.000000,2.679599,17.245171,3.333819,0.000000,-1.487417
LINE71,309.208926,-0.836518,306.063021,3.332334,261.249680,1.248880
LINE72,17.525542,-0.845738,0.000000,3.785686,0.000000,-1.427351
LINE73,17.525542,-0.845738,0.000000,3.788927,0.000000,4.688790
LINE74,0.000000,0.544997,0.000000,-1.271520,0.000000,1.295982
LINE75,0.000000,-1.563029,0.000000,-1.393046,0.000000,-1.503406
LINE76,0.000000,4.648261,0.000000,0.503143,0.000000,4.507775
LINE77,0.000000,2.848220,17.245171,3.333819,0.000000,4.451560
LINE78,309.208926,-0.836518,306.063021,3.332334,261.249680,1.248880
LINE79,0.000000,3.035599,0.000000,-1.228195,0.000000,1.512281
LINE80,0.000000,-1.484061,0.000000,4.703651,0.000000,-1.528287
LINE81,0.000000,-1.567165,0.000000,0.487458,0.000000,4.567207
LINE82,0.000000,-0.119722,17.245171,3.333819,0.000000,1.797680
LINE83,309.208926,-0.836518,306.063021,3.332334,261.249680,1.248880
LINE84,0.000000,3.673960,0.000000,4.229933,0.000000,0.868189
LINE85,0.000000,-1.472217,0.000000,4.697819,0.000000,-1.531200
LINE86,0.000000,-1.457089,0.000000,0.482167,0.000000,4.578515
LINE87,309.208926,-0.836518,306.063021,3.332334,261.249680,1.248880
LINE88,0.000000,2.177829,0.000000,-0.319347,0.000000,-0.563775
LINE89,0.000000,-1.549618,0.000000,4.669316,0.000000,-1.522516
LINE90,0.000000,-1.478619,0.000000,0.563071,0.000000,4.542645
LINE91,309.208926,-0.836518,306.063021,3.332334,261.249680,1.248880
LINE92,0.000000,4.554708,0.000000,4.609298,0.000000,4.605480
LINE93,0.000000,-1.007726,0.000000,0.438716,0.000000,4.632824
LINE94,309.208926,-0.836518,306.063021,3.332334,261.249680,1.248880
LINE95,0.000000,-1.183780,0.000000,-1.183780,0.000000,4.498044
LINE96,0.000000,0.000000,0.000000,0.140217,0.000000,4.671833
LINE97,309.208926,-0.836518,306.063021,3.332334,261.249680,1.248880
LINE98,0.000000,0.089586,0.000000,-0.336364,0.000000,-1.438736
LINE99,0.000000,2.653013,0.000000,0.000000,0.000000,4.687457
LINE100,309.208926,-0.836518,306.063021,3.332334,261.249680,1.248880
LINE101,0.000000,-0.723134,0.000000,0.047318,0.000000,-1.508656
LINE102,0.000000,0.000000,0.000000,0.000000,0.000000,3.116661
LINE103,17.663670,-0.843783,52.913158,3.334552,34.542665,1.247307
LINE104,291.545751,-0.836077,253.150020,3.331871,226.707064,1.249120
LINE105,0.000000,-0.601380,0.000000,0.144792,0.000000,4.695033
LINE106,17.663670,-0.843783,52.913158,3.334552,34.542665,1.247307
LINE107,291.545751,-0.836077,253.150020,3.331871,226.707064,1.249120
LINE108,0.000000,-0.644928,0.000000,0.167281,0.000000,-1.453388
LINE109,17.663670,-0.843783,52.913158,3.334552,34.542665,1.247307
LINE110,291.545751,-0.836077,253.150020,3.331871,226.707064,1.249120
LINE111,0.000000,-0.515360,0.000000,0.154910,0.000000,-1.486633
LINE112,17.663670,-0.843783,52.913158,3.334552,34.542665,1.247307
LINE113,291.545751,-0.836077,253.150020,3.331871,226.707064,1.249120
LINE114,0.000000,-0.513529,0.000000,0.155914,0.000000,-1.483557
LINE115,17.663670,-0.843783,52.913158,3.334552,34.542665,1.247307
LINE116,17.751249,-0.842759,35.406672,3.334754,34.642773,1.248050
LINE117,273.794924,-0.835644,217.743520,3.331402,192.064314,1.249313
LINE118,0.000000,-0.559191,0.000000,0.158418,0.000000,-1.475945
LINE119,17.663670,-0.843783,52.913158,3.334552,34.542665,1.247307
LINE120,0.000000,-0.719670,0.000000,0.717015,0.000000,-1.553219
LINE121,17.751249,-0.842759,35.406672,3.334754,34.642773,1.248050
LINE122,273.794924,-0.835644,217.743520,3.331402,192.064314,1.249313
LINE123,0.000000,-0.464608,0.000000,0.136678,0.000000,-1.521942
LINE124,17.663670,-0.843783,52.913158,3.334552,34.542665,1.247307
LINE125,0.000000,-1.007726,0.000000,0.585794,0.000000,-1.560153
LINE126,17.751249,-0.842759,35.406672,3.334754,34.642773,1.248050
LINE127,273.794924,-0.835644,217.743520,3.331402,192.064314,1.249313
LINE128,0.000000,-0.621784,0.000000,0.128839,0.000000,-1.524103
LINE129,17.663670,-0.843783,52.913158,3.334552,34.542665,1.247307
LINE130,0.000000,4.687457,0.000000,0.533667,0.000000,-1.556686
LINE131,17.751249,-0.842759,0.000000,2.947517,0.000000,1.592487
LINE132,0.000000,3.902776,35.406672,3.334754,34.642773,1.248050
LINE133,273.794924,-0.835644,217.743520,3.331402,192.064314,1.249313
LINE134,0.000000,-0.600235,0.000000,0.123749,0.000000,-1.532815
LINE135,17.663670,-0.843783,52.913158,3.334552,34.542665,1.247307
LINE136,0.000000,4.687457,0.000000,0.494214,0.000000,-1.550837
LINE137,17.751249,-0.842759,0.000000,3.015403,0.000000,1.597509
LINE138,0.000000,3.899238,35.406672,3.334754,34.642773,1.248050
LINE139,273.794924,-0.835644,217.743520,3.331402,192.064314,1.249313
LINE140,0.000000,-0.582942,0.000000,0.115980,0.000000,-1.508106
LINE141,17.663670,-0.843783,52.913158,3.334552,34.542665,1.247307
LINE142,0.000000,4.687457,0.000000,0.438716,0.000000,-1.539982
LINE143,17.751249,-0.842759,0.000000,2.989047,0.000000,1.600211
LINE144,0.000000,3.915187,35.406672,3.334754,34.642773,1.248050
LINE145,273.794924,-0.835644,217.743520,3.331402,192.064314,1.249313
LINE146,0.000000,-0.843106,0.000000,0.174823,0.000000,-1.435167
LINE147,17.663670,-0.843783,52.913158,3.334552,34.542665,1.247307
LINE148,0.000000,4.687457,0.000000,0.438716,0.000000,-1.539797
LINE149,17.751249,-0.842759,0.000000,3.016346,0.000000,1.616302
LINE150,0.000000,3.864766,0.000000,1.982256,34.642773,1.248050
LINE151,0.000000,-0.733083,35.406672,3.334754,0.000000,1.593848
LINE152,273.794924,-0.835644,217.743520,3.331402,192.064314,1.249313
LINE153,0.000000,0.332350,0.000000,0.149184,0.000000,-1.370295
LINE154,17.663670,-0.843783,52.913158,3.334552,34.542665,1.247307
LINE155,0.000000,1.545864,0.000000,0.438716,0.000000,-1.510001
LINE156,17.751249,-0.842759,0.000000,2.986207,0.000000,1.622782
LINE157,0.000000,3.862235,0.000000,1.995675,34.642773,1.248050
LINE158,0.000000,-0.917988,35.406672,3.334754,0.000000,1.596546
LINE159,273.794924,-0.835644,217.743520,3.331402,192.064314,1.249313
LINE160,0.000000,0.866799,0.000000,0.340647,0.000000,-1.307225
LINE161,0.000000,2.976314,17.614914,3.334441,0.000000,3.835791
LINE162,17.663670,-0.843783,35.298244,3.334607,34.542665,1.247307
LINE163,0.000000,2.951512,0.000000,0.099423,0.000000,-1.531364
LINE164,17.751249,-0.842759,0.000000,2.942775,0.000000,1.617894
LINE165,0.000000,3.870108,0.000000,1.982920,34.642773,1.248050
LINE166,0.000000,-1.180695,35.406672,3.334754,0.000000,1.583050
LINE167,273.794924,-0.835644,217.743520,3.331402,192.064314,1.249313
LINE168,0.000000,-0.147462,0.000000,0.962044,0.000000,0.824935
LINE169,0.000000,2.202192,17.614914,3.334441,0.000000,4.563111
LINE170,17.663670,-0.843783,35.298244,3.334607,34.542665,1.247307
LINE171,0.000000,1.545864,0.000000,0.099423,0.000000,-1.548888
LINE172,17.751249,-0.842759,0.000000,2.950996,0.000000,1.589325
LINE173,0.000000,3.950885,0.000000,1.942222,0.000000,-0.424731
LINE174,0.000000,3.172190,0.000000,2.706964,34.642773,1.248050
LINE175,0.000000,-1.478451,35.406672,3.334754,0.000000,1.557339
LINE176,273.794924,-0.835644,217.743520,3.331402,192.064314,1.249313
LINE177,0.000000,0.086301,17.614914,3.334441,0.000000,1.000340
LINE178,17.663670,-0.843783,35.298244,3.334607,0.000000,-1.429699
LINE179,0.000000,-0.653869,0.000000,3.872699,34.542665,1.247307
LINE180,0.000000,0.438716,0.000000,-0.269911,0.000000,-1.564488
LINE181,17.751249,-0.842759,0.000000,2.897115,0.000000,1.619412
LINE182,0.000000,4.093556,0.000000,2.037439,0.000000,-0.419991
LINE183,0.000000,3.172299,0.000000,2.649331,34.642773,1.248050
LINE184,0.000000,-1.068969,35.406672,3.334754,0.000000,1.527338
LINE185,273.794924,-0.835644,217.743520,3.331402,192.064314,1.249313
LINE186,17.663670,-0.843783,35.298244,3.334607,0.000000,-1.424240
LINE187,0.000000,-0.650014,0.000000,3.870613,34.542665,1.247307
LINE188,0.000000,1.545864,0.000000,-0.810330,0.000000,-1.564488
LINE189,17.751249,-0.842759,0.000000,2.890885,0.000000,1.612449
LINE190,0.000000,2.962703,0.000000,-0.441776,0.000000,3.836942
LINE191,0.000000,4.246563,0.000000,2.039116,0.000000,-0.594101
LINE192,0.000000,3.271822,0.000000,2.814144,34.642773,1.248050
LINE193,0.000000,-1.115349,35.406672,3.334754,0.000000,1.434891
LINE194,273.794924,-0.835644,217.743520,3.331402,192.064314,1.249313
LINE195,17.663670,-0.843783,35.298244,3.334607,0.000000,-1.355913
LINE196,0.000000,3.020102,0.000000,1.636376,17.270412,1.247294
LINE197,0.000000,-0.648255,0.000000,3.910119,17.272253,1.247320
LINE198,0.000000,0.957862,0.000000,-0.024932,0.000000,-0.024932
LINE199,17.751249,-0.842759,0.000000,3.017410,0.000000,1.630410
LINE200,0.000000,2.522391,0.000000,-0.748305,0.000000,1.262623
LINE201,0.000000,3.939064,0.000000,2.119118,0.000000,-0.378424
LINE202,0.000000,3.105488,0.000000,2.758701,34.642773,1.248050
LINE203,0.000000,-0.969673,35.406672,3.334754,0.000000,1.485045
LINE204,273.794924,-0.835644,217.743520,3.331402,192.064314,1.249313
LINE205,17.663670,-0.843783,0.000000,3.041631,0.000000,1.765228
LINE206,0.000000,3.338040,35.298244,3.334607,0.000000,-1.510675
LINE207,0.000000,0.099339,0.000000,1.870406,17.270412,1.247294
LINE208,0.000000,-0.376330,0.000000,3.747494,17.272253,1.247320
LINE209,0.000000,0.000000,0.000000,0.438716,0.000000,-0.024932
LINE210,17.751249,-0.842759,0.000000,3.045085,0.000000,1.624614
LINE211,0.000000,4.319038,0.000000,1.944517,0.000000,-0.515510
LINE212,0.000000,2.896840,0.000000,2.113422,34.642773,1.248050
LINE213,0.000000,4.355738,35.406672,3.334754,0.000000,1.384056
LINE214,273.794924,-0.835644,217.743520,3.331402,192.064314,1.249313
LINE215,17.663670,-0.843783,0.000000,2.701460,0.000000,1.694102
LINE216,0.000000,3.490513,35.298244,3.334607,0.000000,4.226038
LINE217,0.000000,-0.540884,0.000000,3.943514,17.272253,1.247320
LINE218,0.000000,0.000000,0.000000,3.116661,0.000000,-0.024932
LINE219,17.751249,-0.842759,0.000000,3.066347,0.000000,1.631067
LINE220,0.000000,3.961875,0.000000,1.935978,0.000000,-0.061309
LINE221,0.000000,3.058709,0.000000,2.326107,34.642773,1.248050
LINE222,0.000000,4.099865,35.406672,3.334754,0.000000,1.498909
LINE223,273.794924,-0.835644,217.743520,3.331402,192.064314,1.249313
LINE224,17.663670,-0.843783,0.000000,2.807687,0.000000,1.614450
LINE225,0.000000,-1.403629,35.298244,3.334607,0.000000,3.403360
LINE226,0.000000,-0.195530,0.000000,3.820471,17.272253,1.247320
LINE227,17.751249,-0.842759,0.000000,3.153014,0.000000,1.624506
LINE228,0.000000,3.961290,0.000000,2.167499,0.000000,0.408567
LINE229,0.000000,3.008511,0.000000,2.502910,34.642773,1.248050
LINE230,0.000000,-1.520427,35.406672,3.334754,0.000000,1.510685
LINE231,273.794924,-0.835644,217.743520,3.331402,192.064314,1.249313
LINE232,0.000000,4.590933,35.298244,3.334607,0.000000,1.572377
LINE233,0.000000,4.474080,0.000000,2.868149,0.000000,-1.155891
LINE234,0.000000,-0.091927,0.000000,3.849676,17.272253,1.247320
LINE235,17.751249,-0.842759,0.000000,3.313507,0.000000,1.585080
LINE236,0.000000,4.200987,0.000000,2.192020,0.000000,0.694551
LINE237,0.000000,2.890116,0.000000,2.622903,34.642773,1.248050
LINE238,0.000000,3.199793,35.406672,3.334754,0.000000,1.515361
LINE239,273.794924,-0.835644,217.743520,3.331402,192.064314,1.249313
LINE240,0.000000,4.087378,35.298244,3.334607,0.000000,1.444640
LINE241,0.000000,-0.055565,0.000000,3.789995,17.272253,1.247320
LINE242,17.751249,-0.842759,0.000000,3.438575,0.000000,1.497744
LINE243,0.000000,-1.457876,0.000000,2.629703,0.000000,0.901941
LINE244,0.000000,2.885993,0.000000,2.500148,34.642773,1.248050
LINE245,0.000000,3.739704,35.406672,3.334754,0.000000,1.462609
LINE246,273.794924,-0.835644,217.743520,3.331402,192.064314,1.249313
LINE247,0.000000,-1.361926,17.649122,3.334607,0.000000,4.552394
LINE248,0.000000,-1.360576,17.649122,3.334607,0.000000,4.659204
LINE249,0.000000,-0.790187,0.000000,4.113868,17.272253,1.247320
LINE250,17.751249,-0.842759,0.000000,2.913124,0.000000,2.132378
LINE251,0.000000,4.416437,0.000000,2.487353,0.000000,0.883944
LINE252,0.000000,2.787218,0.000000,2.242118,34.642773,1.248050
LINE253,0.000000,3.738549,35.406672,3.334754,0.000000,1.455358
LINE254,17.945046,-0.841232,0.000000,1.417050,0.000000,4.643719
LINE255,255.850177,-0.835252,217.743520,3.331402,192.064314,1.249313
LINE256,0.000000,-0.847283,0.000000,3.770095,17.272253,1.247320
LINE257,17.751249,-0.842759,0.000000,3.208205,0.000000,1.479423
LINE258,0.000000,4.430272,0.000000,2.657370,0.000000,4.172879
LINE259,0.000000,2.853529,0.000000,2.231601,34.642773,1.248050
LINE260,0.000000,3.452596,35.406672,3.334754,0.000000,1.349389
LINE261,17.945046,-0.841232,0.000000,1.482981,0.000000,4.646513
LINE262,255.850177,-0.835252,217.743520,3.331402,192.064314,1.249313
LINE263,0.000000,2.701145,0.000000,-0.814642,17.272253,1.247320
LINE264,17.751249,-0.842759,0.000000,2.821867,0.000000,1.545780
LINE265,0.000000,-1.459528,0.000000,3.013655,0.000000,0.756747
LINE266,0.000000,2.791761,0.000000,2.185128,34.642773,1.248050
LINE267,0.000000,-0.619639,17.704895,3.334776,0.000000,1.726240
LINE268,0.000000,3.107458,17.701777,3.334732,0.000000,4.683698
LINE269,17.945046,-0.841232,0.000000,1.640759,0.000000,4.640596
LINE270,0.000000,-0.608629,0.000000,-0.768851,17.384748,1.249423
LINE271,255.850177,-0.835252,217.743520,3.331402,174.679567,1.249302
LINE272,17.751249,-0.842759,0.000000,-1.567784,0.000000,4.592143
LINE273,0.000000,-0.893972,0.000000,2.648496,0.000000,0.308430
LINE274,0.000000,2.439397,0.000000,1.902724,34.642773,1.248050
LINE275,0.000000,4.270157,17.704895,3.334776,0.000000,1.503320
LINE276,0.000000,3.459122,17.701777,3.334732,0.000000,-1.555877
LINE277,17.945046,-0.841232,0.000000,1.229422,0.000000,4.647229
LINE278,0.000000,-0.755430,0.000000,-0.978901,17.384748,1.249423
LINE279,255.850177,-0.835252,217.743520,3.331402,174.679567,1.249302
LINE280,17.751249,-0.842759,0.000000,3.706395,0.000000,1.569679
LINE281,0.000000,1.305262,0.000000,3.688615,0.000000,3.010536
LINE282,0.000000,2.562210,0.000000,2.120025,34.642773,1.248050
LINE283,0.000000,-0.172851,17.701777,3.334732,0.000000,1.459331
LINE284,17.945046,-0.841232,0.000000,1.150596,0.000000,4.648985
LINE285,0.000000,-0.616772,0.000000,-1.185648,17.384748,1.249423
LINE286,127.959270,-0.834444,72.463830,3.329118,34.734957,1.249966
LINE287,127.890991,-0.836061,145.279973,3.332541,139.944620,1.249137
LINE288,17.751249,-0.842759,0.000000,2.418100,0.000000,1.529917
LINE289,0.000000,3.948835,0.000000,1.982036,0.000000,2.416680
LINE290,0.000000,0.445663,0.000000,-1.485119,17.324046,1.248088
LINE291,0.000000,2.828530,0.000000,2.004670,17.318727,1.248012
LINE292,0.000000,3.212522,17.701777,3.334732,0.000000,4.513800
LINE293,17.945046,-0.841232,0.000000,1.179270,0.000000,4.650626
LINE294,0.000000,-0.578647,0.000000,-1.213197,17.384748,1.249423
LINE295,127.959270,-0.834444,72.463830,3.329118,34.734957,1.249966
LINE296,127.890991,-0.836061,145.279973,3.332541,139.944620,1.249137
LINE297,0.000000,0.396372,0.000000,0.396372,17.324046,1.248088
LINE298,0.000000,2.908228,0.000000,1.545101,17.318727,1.248012
LINE299,0.000000,-0.785503,17.701777,3.334732,0.000000,1.439598
LINE300,17.945046,-0.841232,0.000000,1.210835,0.000000,4.639539
LINE301,0.000000,-0.710843,0.000000,-1.249547,17.384748,1.249423
LINE302,127.959270,-0.834444,72.463830,3.329118,34.734957,1.249966
LINE303,127.890991,-0.836061,145.279973,3.332541,139.944620,1.249137
LINE304,0.000000,1.168517,0.000000,0.658620,17.324046,1.248088
LINE305,0.000000,2.637373,0.000000,1.640014,17.318727,1.248012
LINE306,0.000000,0.629812,17.701777,3.334732,0.000000,-1.501200
LINE307,17.945046,-0.841232,0.000000,1.174414,0.000000,4.612724
LINE308,0.000000,-0.901414,0.000000,4.671443,17.384748,1.249423
LINE309,127.959270,-0.834444,72.463830,3.329118,34.734957,1.249966
LINE310,127.890991,-0.836061,145.279973,3.332541,139.944620,1.249137
LINE311,0.000000,0.068216,0.000000,0.404569,17.324046,1.248088
LINE312,0.000000,2.046739,0.000000,0.458428,17.318727,1.248012
LINE313,0.000000,2.818181,17.701777,3.334732,0.000000,-1.549788
LINE314,17.945046,-0.841232,0.000000,1.141988,0.000000,4.630075
LINE315,0.000000,-1.309029,0.000000,-1.538739,17.384748,1.249423
LINE316,36.134156,-0.839550,0.000000,2.778109,0.000000,4.614070
LINE317,91.825771,-0.832435,72.463830,3.329118,34.734957,1.249966
LINE318,127.890991,-0.836061,145.279973,3.332541,139.944620,1.249137
LINE319,0.000000,1.792502,0.000000,2.292068,17.324046,1.248088
LINE320,0.000000,3.239983,0.000000,1.515440,17.318727,1.248012
LINE321,17.945046,-0.841232,0.000000,1.098310,0.000000,4.637972
LINE322,0.000000,3.032310,0.000000,-0.681551,17.384748,1.249423
LINE323,36.134156,-0.839550,0.000000,2.697139,0.000000,4.622138
LINE324,91.825771,-0.832435,72.463830,3.329118,34.734957,1.249966
LINE325,127.890991,-0.836061,145.279973,3.332541,139.944620,1.249137
LINE326,0.000000,-0.429732,0.000000,3.261103,17.318727,1.248012
LINE327,17.945046,-0.841232,0.000000,0.739798,0.000000,4.634199
LINE328,0.000000,4.680002,0.000000,4.680002,17.384748,1.249423
LINE329,36.134156,-0.839550,0.000000,2.717963,0.000000,4.611012
LINE330,0.000000,-0.397958,0.000000,-0.709536,17.385968,1.250086
LINE331,91.825771,-0.832435,72.463830,3.329118,17.348989,1.249846
LINE332,127.890991,-0.836061,145.279973,3.332541,139.944620,1.249137
LINE333,17.945046,-0.841232,0.000000,0.846127,0.000000,4.625911
LINE334,0.000000,-0.167967,0.000000,-0.610655,17.384748,1.249423
LINE335,36.134156,-0.839550,0.000000,2.746633,0.000000,4.593069
LINE336,0.000000,3.747702,0.000000,1.435639,17.385968,1.250086
LINE337,0.000000,1.273153,17.936221,3.330882,0.000000,1.577035
LINE338,91.825771,-0.832435,54.527646,3.328538,17.348989,1.249846
LINE339,127.890991,-0.836061,145.279973,3.332541,139.944620,1.249137
LINE340,17.945046,-0.841232,0.000000,0.955648,0.000000,4.619650
LINE341,0.000000,-0.405518,0.000000,-0.215253,17.384748,1.249423
LINE342,18.064430,-0.839586,0.000000,2.907977,0.000000,4.568621
LINE343,18.069726,-0.839513,0.000000,2.724097,0.000000,4.601611
LINE344,0.000000,1.286449,17.936221,3.330882,0.000000,1.578705
LINE345,91.825771,-0.832435,54.527646,3.328538,17.348989,1.249846
LINE346,127.890991,-0.836061,145.279973,3.332541,139.944620,1.249137
LINE347,17.945046,-0.841232,0.000000,0.997077,0.000000,4.625760
LINE348,18.064430,-0.839586,0.000000,-0.331674,0.000000,-1.534426
LINE349,18.069726,-0.839513,0.000000,2.536751,0.000000,4.454343
LINE350,0.000000,1.492279,17.936221,3.330882,0.000000,1.570030
LINE351,91.825771,-0.832435,54.527646,3.328538,17.348989,1.249846
LINE352,127.890991,-0.836061,145.279973,3.332541,139.944620,1.249137
LINE353,17.945046,-0.841232,0.000000,0.884990,0.000000,4.664879
LINE354,18.069726,-0.839513,0.000000,3.154820,0.000000,4.525294
LINE355,0.000000,1.783204,17.936221,3.330882,0.000000,1.554880
LINE356,91.825771,-0.832435,54.527646,3.328538,17.348989,1.249846
LINE357,127.890991,-0.836061,145.279973,3.332541,139.944620,1.249137
LINE358,17.945046,-0.841232,0.000000,0.490373,0.000000,4.615341
LINE359,18.069726,-0.839513,0.000000,2.030281,0.000000,4.612388
LINE360,0.000000,1.858607,17.936221,3.330882,0.000000,1.496832
LINE361,91.825771,-0.832435,54.527646,3.328538,17.348989,1.249846
LINE362,127.890991,-0.836061,145.279973,3.332541,139.944620,1.249137
LINE363,17.945046,-0.841232,0.000000,0.516740,0.000000,4.541211
LINE364,18.069726,-0.839513,0.000000,2.767181,0.000000,4.486325
LINE365,0.000000,1.927774,17.936221,3.330882,0.000000,-1.285474
LINE366,91.825771,-0.832435,54.527646,3.328538,17.348989,1.249846
LINE367,127.890991,-0.836061,145.279973,3.332541,139.944620,1.249137
LINE368,17.945046,-0.841232,0.000000,-0.574790,0.000000,2.140119
LINE369,18.069726,-0.839513,0.000000,-1.132648,0.000000,1.998356
LINE370,0.000000,2.356464,17.936221,3.330882,0.000000,1.553057
LINE371,91.825771,-0.832435,54.527646,3.328538,17.348989,1.249846
LINE372,127.890991,-0.836061,145.279973,3.332541,139.944620,1.249137
LINE373,17.945046,-0.841232,0.000000,-0.441038,0.000000,4.641856
LINE374,18.069726,-0.839513,0.000000,3.961559,0.000000,4.379528
LINE375,0.000000,2.404171,17.936221,3.330882,0.000000,2.204693
LINE376,91.825771,-0.832435,54.527646,3.328538,17.348989,1.249846
LINE377,127.890991,-0.836061,145.279973,3.332541,122.516423,1.249063
LINE378,0.000000,1.999090,0.000000,0.304082,17.428200,1.249655
LINE379,17.945046,-0.841232,0.000000,1.421269,0.000000,4.567131
LINE380,18.069726,-0.839513,0.000000,0.360155,0.000000,4.666443
LINE381,0.000000,1.930086,17.936221,3.330882,0.000000,4.563849
LINE382,91.825771,-0.832435,54.527646,3.328538,17.348989,1.249846
LINE383,127.890991,-0.836061,145.279973,3.332541,122.516423,1.249063
LINE384,0.000000,-0.382422,0.000000,0.703793,17.428200,1.249655
LINE385,0.000000,2.461579,0.000000,0.329350,0.000000,4.554286
LINE386,17.945046,-0.841232,0.000000,2.009777,0.000000,1.367899
LINE387,18.069726,-0.839513,0.000000,2.883483,0.000000,1.720609
LINE388,0.000000,1.375786,17.936221,3.330882,0.000000,4.515848
LINE389,91.825771,-0.832435,54.527646,3.328538,17.348989,1.249846
LINE390,127.890991,-0.836061,145.279973,3.332541,122.516423,1.249063
LINE391,0.000000,-0.401513,0.000000,0.549383,17.428200,1.249655
LINE392,0.000000,2.469404,0.000000,0.323771,0.000000,4.572705
LINE393,0.000000,2.402882,17.936221,3.330882,0.000000,4.615392
LINE394,91.825771,-0.832435,54.527646,3.328538,17.348989,1.249846
LINE395,0.000000,-0.271790,0.000000,0.189831,34.914283,1.249750
LINE396,127.890991,-0.836061,145.279973,3.332541,87.602151,1.248789
LINE397,0.000000,-0.442424,0.000000,0.272079,17.428200,1.249655
LINE398,0.000000,2.609405,0.000000,0.345564,0.000000,4.525264
LINE399,0.000000,3.555212,17.936221,3.330882,0.000000,1.459471
LINE400,91.825771,-0.832435,54.527646,3.328538,17.348989,1.249846
LINE401,0.000000,-0.264162,0.000000,0.169296,34.914283,1.249750
LINE402,127.890991,-0.836061,145.279973,3.332541,87.602151,1.248789
LINE403,0.000000,-0.583220,0.000000,0.172548,17.428200,1.249655
LINE404,0.000000,2.375589,0.000000,0.079561,0.000000,4.325853
LINE405,0.000000,2.971942,17.936221,3.330882,0.000000,4.282943
LINE406,91.825771,-0.832435,54.527646,3.328538,17.348989,1.249846
LINE407,0.000000,-0.270093,0.000000,0.215931,34.914283,1.249750
LINE408,127.890991,-0.836061,145.279973,3.332541,87.602151,1.248789
LINE409,0.000000,-0.387697,0.000000,3.800496,0.000000,1.594852
LINE410,0.000000,2.742795,0.000000,0.407189,17.428200,1.249655
LINE411,0.000000,2.908321,0.000000,0.352597,0.000000,1.641672
LINE412,91.825771,-0.832435,54.527646,3.328538,17.348989,1.249846
LINE413,0.000000,-0.269660,0.000000,0.325592,34.914283,1.249750
LINE414,127.890991,-0.836061,145.279973,3.332541,87.602151,1.248789
LINE415,0.000000,-0.434233,0.000000,3.789607,0.000000,1.630985
LINE416,0.000000,2.993391,0.000000,0.447588,17.428200,1.249655
LINE417,0.000000,2.603943,0.000000,0.683540,0.000000,4.515256
LINE418,91.825771,-0.832435,54.527646,3.328538,17.348989,1.249846
LINE419,0.000000,-0.270012,0.000000,0.228263,34.914283,1.249750
LINE420,127.890991,-0.836061,145.279973,3.332541,87.602151,1.248789
LINE421,0.000000,-0.425952,0.000000,3.812294,0.000000,1.668290
LINE422,0.000000,1.659743,0.000000,1.120266,17.428200,1.249655
LINE423,0.000000,2.633771,0.000000,0.339076,0.000000,4.015128
LINE424,91.825771,-0.832435,54.527646,3.328538,17.348989,1.249846
LINE425,0.000000,1.845575,0.000000,2.965061,0.000000,-1.403272
LINE426,0.000000,-0.225641,0.000000,0.166154,34.914283,1.249750
LINE427,127.890991,-0.836061,145.279973,3.332541,87.602151,1.248789
LINE428,0.000000,-0.407105,0.000000,3.749198,0.000000,1.703155
LINE429,0.000000,2.743272,0.000000,0.288474,17.428200,1.249655
LINE430,0.000000,2.661190,0.000000,0.207044,0.000000,4.407082
LINE431,91.825771,-0.832435,54.527646,3.328538,17.348989,1.249846
LINE432,0.000000,2.307243,0.000000,-0.380499,0.000000,3.854930
LINE433,0.000000,-0.206072,0.000000,0.150947,34.914283,1.249750
LINE434,127.890991,-0.836061,145.279973,3.332541,87.602151,1.248789
LINE435,0.000000,-0.400731,0.000000,3.687269,0.000000,1.687094
LINE436,0.000000,0.725889,0.000000,1.082831,17.428200,1.249655
LINE437,0.000000,2.711358,0.000000,0.669347,0.000000,3.289995
LINE438,91.825771,-0.832435,54.527646,3.328538,17.348989,1.249846
LINE439,0.000000,2.769179,0.000000,0.302599,0.000000,1.666113
LINE440,0.000000,-0.284627,0.000000,0.176065,34.914283,1.249750
LINE441,127.890991,-0.836061,145.279973,3.332541,87.602151,1.248789
LINE442,0.000000,-0.370345,0.000000,3.764092,0.000000,1.652351
LINE443,0.000000,0.237671,0.000000,0.943484,17.428200,1.249655
LINE444,0.000000,2.673716,0.000000,3.541778,0.000000,4.639094
LINE445,91.825771,-0.832435,54.527646,3.328538,17.348989,1.249846
LINE446,0.000000,1.190414,0.000000,3.233832,0.000000,0.630298
LINE447,0.000000,-0.252683,0.000000,0.158217,34.914283,1.249750
LINE448,127.890991,-0.836061,145.279973,3.332541,87.602151,1.248789
LINE449,0.000000,-0.352770,0.000000,3.725553,0.000000,1.674786
LINE450,0.000000,1.647238,0.000000,3.054229,17.428200,1.249655
LINE451,0.000000,2.818458,0.000000,-0.079360,0.000000,4.604375
LINE452,91.825771,-0.832435,54.527646,3.328538,17.348989,1.249846
LINE453,0.000000,1.269268,0.000000,1.269268,0.000000,1.600079
LINE454,0.000000,-0.245600,0.000000,0.108676,34.914283,1.249750
LINE455,127.890991,-0.836061,145.279973,3.332541,87.602151,1.248789
LINE456,0.000000,-0.140093,0.000000,3.722347,0.000000,1.574660
LINE457,0.000000,0.470082,0.000000,4.014717,17.428200,1.249655
LINE458,0.000000,2.778860,0.000000,-0.224314,0.000000,4.676622
LINE459,73.520206,-0.832049,54.527646,3.328538,17.348989,1.249846
LINE460,0.000000,4.621571,0.000000,1.191325,0.000000,1.914883
LINE461,18.305592,-0.833988,0.000000,0.119299,0.000000,-1.526401
LINE462,0.000000,-0.222339,0.000000,0.137988,34.914283,1.249750
LINE463,127.890991,-0.836061,145.279973,3.332541,87.602151,1.248789
LINE464,0.000000,-0.192447,0.000000,3.937060,0.000000,1.552785
LINE465,0.000000,2.702488,0.000000,0.092192,0.000000,4.666763
LINE466,73.520206,-0.832049,54.527646,3.328538,17.348989,1.249846
LINE467,0.000000,3.565307,0.000000,4.171724,0.000000,2.191444
LINE468,0.000000,0.632613,0.000000,-0.714250,0.000000,3.128988
LINE469,18.305592,-0.833988,0.000000,0.049101,0.000000,-1.525505
LINE470,0.000000,-0.140814,0.000000,0.139200,34.914283,1.249750
LINE471,127.890991,-0.836061,145.279973,3.332541,87.602151,1.248789
LINE472,0.000000,-0.261775,0.000000,3.771007,0.000000,1.710154
LINE473,0.000000,2.902391,0.000000,0.117164,0.000000,4.673884
LINE474,73.520206,-0.832049,54.527646,3.328538,17.348989,1.249846
LINE475,0.000000,0.990250,0.000000,2.839239,0.000000,4.699415
LINE476,18.305592,-0.833988,0.000000,0.075912,0.000000,-1.525653
LINE477,0.000000,-0.209116,0.000000,0.178007,34.914283,1.249750
LINE478,127.890991,-0.836061,145.279973,3.332541,87.602151,1.248789
LINE479,0.000000,-0.405606,0.000000,4.047994,0.000000,1.702068
LINE480,0.000000,2.604311,0.000000,0.165298,0.000000,4.582006
LINE481,36.779752,-0.831553,54.527646,3.328538,17.348989,1.249846
LINE482,0.000000,4.676466,0.000000,1.271768,0.000000,4.316071
LINE483,36.740463,-0.832545,0.000000,0.732344,0.000000,4.703145
LINE484,18.305592,-0.833988,0.000000,-0.225615,0.000000,-1.518601
LINE485,0.000000,-0.100259,0.000000,0.192762,34.914283,1.249750
LINE486,127.890991,-0.836061,145.279973,3.332541,87.602151,1.248789
LINE487,0.000000,-0.253751,0.000000,4.092032,0.000000,1.654477
LINE488,0.000000,3.536992,0.000000,3.863124,0.000000,1.554530
LINE489,36.779752,-0.831553,54.527646,3.328538,17.348989,1.249846
LINE490,0.000000,1.719472,0.000000,2.454184,0.000000,3.485620
LINE491,18.369286,-0.832557,0.000000,0.741975,0.000000,4.702907
LINE492,18.371177,-0.832532,0.000000,-1.506169,0.000000,2.649089
LINE493,18.305592,-0.833988,0.000000,0.243143,0.000000,-1.516111
LINE494,0.000000,-0.228353,0.000000,0.241888,34.914283,1.249750
LINE495,127.890991,-0.836061,145.279973,3.332541,87.602151,1.248789
LINE496,0.000000,-0.181660,0.000000,4.236826,0.000000,1.658473
LINE497,0.000000,0.693276,0.000000,3.554579,0.000000,1.458489
LINE498,36.779752,-0.831553,54.527646,3.328538,17.348989,1.249846
LINE499,0.000000,2.238056,0.000000,2.238056,0.000000,1.354681
LINE500,18.369286,-0.832557,0.000000,0.773543,0.000000,4.707154
LINE501,18.371177,-0.832532,0.000000,-1.136975,0.000000,4.632286
LINE502,18.305592,-0.833988,0.000000,0.341795,0.000000,-1.524079
LINE503,0.000000,-0.984074,0.000000,0.136702,34.914283,1.249750
LINE504,127.890991,-0.836061,145.279973,3.332541,87.602151,1.248789
LINE505,0.000000,-0.188575,0.000000,4.352697,0.000000,1.686928
LINE506,0.000000,2.552175,0.000000,-0.539292,0.000000,0.087342
LINE507,36.779752,-0.831553,54.527646,3.328538,17.348989,1.249846
LINE508,0.000000,3.956548,0.000000,1.681462,0.000000,-1.189360
LINE509,18.369286,-0.832557,0.000000,0.951360,0.000000,-1.560908
LINE510,18.305592,-0.833988,0.000000,0.293444,0.000000,-1.531904
LINE511,0.000000,1.806310,0.000000,0.202959,34.914283,1.249750
LINE512,0.000000,-1.360142,17.998219,3.332510,0.000000,1.282853
LINE513,127.890991,-0.836061,127.281754,3.332546,87.602151,1.248789
LINE514,0.000000,-0.075899,0.000000,4.354383,0.000000,1.680692
LINE515,0.000000,4.534938,54.527646,3.328538,17.348989,1.249846
LINE516,0.000000,-0.201681,0.000000,-0.201681,0.000000,2.996186
LINE517,36.779752,-0.831553,0.000000,3.556912,0.000000,-0.371663
LINE518,18.369286,-0.832557,0.000000,1.001252,0.000000,-1.551702
LINE519,18.305592,-0.833988,0.000000,-0.254597,0.000000,-1.532399
LINE520,0.000000,1.910108,0.000000,0.706353,34.914283,1.249750
LINE521,0.000000,1.202998,17.998219,3.332510,0.000000,1.712675
LINE522,127.890991,-0.836061,127.281754,3.332546,87.602151,1.248789
LINE523,0.000000,-0.218216,0.000000,4.272615,0.000000,1.589792
LINE524,0.000000,4.545423,54.527646,3.328538,17.348989,1.249846
LINE525,0.000000,0.082806,0.000000,3.917914,0.000000,1.737188
LINE526,36.779752,-0.831553,0.000000,3.552069,0.000000,-0.084011
LINE527,18.369286,-0.832557,0.000000,0.656544,0.000000,-1.537935
LINE528,18.305592,-0.833988,0.000000,-0.404195,0.000000,-1.515164
LINE529,0.000000,-1.305128,0.000000,0.826537,34.914283,1.249750
LINE530,127.890991,-0.836061,127.281754,3.332546,87.602151,1.248789
LINE531,0.000000,-0.378553,0.000000,3.590450,0.000000,1.407878
LINE532,0.000000,4.541726,54.527646,3.328538,17.348989,1.249846
LINE533,0.000000,0.264116,0.000000,2.196596,0.000000,1.765565
LINE534,36.779752,-0.831553,0.000000,3.545953,0.000000,-0.406263
LINE535,18.369286,-0.832557,0.000000,1.723421,0.000000,4.700616
LINE536,18.305592,-0.833988,0.000000,-0.909321,0.000000,-1.507782
LINE537,0.000000,2.120151,0.000000,4.234418,17.460169,1.249792
LINE538,0.000000,-0.263733,0.000000,3.381761,17.454114,1.249707
LINE539,127.890991,-0.836061,127.281754,3.332546,87.602151,1.248789
LINE540,0.000000,-0.793871,0.000000,3.796694,0.000000,1.604839
LINE541,0.000000,4.559256,54.527646,3.328538,17.348989,1.249846
LINE542,0.000000,1.475910,0.000000,1.475910,0.000000,4.658323
LINE543,36.779752,-0.831553,0.000000,3.546062,0.000000,-0.520786
LINE544,18.369286,-0.832557,0.000000,3.527778,0.000000,-1.510088
LINE545,18.305592,-0.833988,0.000000,-0.832114,0.000000,-1.512323
LINE546,0.000000,1.394982,0.000000,3.965557,17.460169,1.249792
LINE547,127.890991,-0.836061,127.281754,3.332546,87.602151,1.248789
LINE548,0.000000,-0.638256,0.000000,4.046582,0.000000,1.298304
LINE549,0.000000,4.566205,54.527646,3.328538,17.348989,1.249846
LINE550,0.000000,1.346562,0.000000,-1.520159,0.000000,3.833327
LINE551,18.389642,-0.831557,0.000000,3.529564,0.000000,-1.099145
LINE552,18.390110,-0.831550,0.000000,0.635691,0.000000,-1.504441
LINE553,18.369286,-0.832557,0.000000,-0.362744,0.000000,4.690321
LINE554,18.305592,-0.833988,0.000000,4.441071,0.000000,-1.515510
LINE555,0.000000,1.912346,0.000000,2.332628,17.460169,1.249792
LINE556,127.890991,-0.836061,127.281754,3.332546,87.602151,1.248789
LINE557,0.000000,-1.043006,0.000000,-1.031157,0.000000,1.701901
LINE558,0.000000,4.566666,54.527646,3.328538,17.348989,1.249846
LINE559,0.000000,4.075523,0.000000,1.516362,0.000000,1.329182
LINE560,18.389642,-0.831557,0.000000,3.480491,0.000000,-0.942747
LINE561,18.390110,-0.831550,0.000000,1.343153,0.000000,-1.466311
LINE562,18.369286,-0.832557,0.000000,3.033699,0.000000,2.631938
LINE563,18.305592,-0.833988,0.000000,-1.173846,0.000000,-1.494475
LINE564,127.890991,-0.836061,127.281754,3.332546,87.602151,1.248789
LINE565,0.000000,-1.047247,0.000000,2.102535,0.000000,4.527490
LINE566,0.000000,-1.562647,18.170683,3.328577,17.348989,1.249846
LINE567,0.000000,-0.921480,0.000000,2.771693,0.000000,1.888406
LINE568,0.000000,3.212980,36.356963,3.328519,0.000000,4.699889
LINE569,18.389642,-0.831557,0.000000,3.426314,0.000000,-0.961943
LINE570,18.305592,-0.833988,0.000000,0.429564,0.000000,-1.418160
LINE571,127.890991,-0.836061,127.281754,3.332546,87.602151,1.248789
LINE572,0.000000,4.428105,18.170683,3.328577,17.348989,1.249846
LINE573,0.000000,0.536817,0.000000,-0.429318,0.000000,4.345013
LINE574,0.000000,3.203779,36.356963,3.328519,0.000000,4.703045
LINE575,18.389642,-0.831557,0.000000,3.409845,0.000000,1.332362
LINE576,18.305592,-0.833988,0.000000,0.543151,0.000000,-1.485156
LINE577,127.890991,-0.836061,127.281754,3.332546,87.602151,1.248789
LINE578,0.000000,0.901200,18.170683,3.328577,17.348989,1.249846
LINE579,0.000000,3.058487,0.000000,3.058487,0.000000,3.292462
LINE580,0.000000,4.442081,0.000000,3.510722,0.000000,2.950778
LINE581,0.000000,3.241189,36.356963,3.328519,0.000000,4.691407
LINE582,18.389642,-0.831557,0.000000,3.539049,0.000000,1.485985
LINE583,18.305592,-0.833988,0.000000,0.664027,0.000000,-1.196434
LINE584,0.000000,-0.903650,18.016059,3.332575,0.000000,1.637238
LINE585,127.890991,-0.836061,109.265695,3.332541,87.602151,1.248789
LINE586,0.000000,1.274438,18.170683,3.328577,17.348989,1.249846
LINE587,0.000000,-1.163411,0.000000,-1.559451,0.000000,3.651931
LINE588,0.000000,4.403066,0.000000,3.630064,0.000000,3.207315
LINE589,0.000000,3.248081,36.356963,3.328519,0.000000,4.694258
LINE590,18.389642,-0.831557,0.000000,2.966903,0.000000,1.540272
LINE591,18.305592,-0.833988,0.000000,2.439848,0.000000,-1.389995
LINE592,0.000000,-0.923379,18.016059,3.332575,0.000000,1.635822
LINE593,127.890991,-0.836061,109.265695,3.332541,87.602151,1.248789
LINE594,0.000000,1.033706,18.170683,3.328577,0.000000,1.098378
LINE595,0.000000,0.426849,0.000000,-0.104303,17.348989,1.249846
LINE596,0.000000,-1.451971,0.000000,3.455474,0.000000,2.798070
LINE597,0.000000,3.172541,36.356963,3.328519,0.000000,4.690677
LINE598,18.389642,-0.831557,0.000000,3.216091,0.000000,1.557454
LINE599,18.305592,-0.833988,0.000000,4.694764,0.000000,-1.521743
LINE600,0.000000,-0.857017,18.016059,3.332575,0.000000,1.629236
LINE601,0.000000,-0.388349,0.000000,0.392883,17.475049,1.248932
LINE602,127.890991,-0.836061,109.265695,3.332541,70.127103,1.248753
LINE603,0.000000,2.857786,18.170683,3.328577,0.000000,1.052106
LINE604,0.000000,3.821255,0.000000,2.537059,0.000000,1.744179
LINE605,0.000000,1.501212,0.000000,3.905170,0.000000,1.478997
LINE606,0.000000,2.829681,0.000000,-1.170530,17.348989,1.249846
LINE607,0.000000,3.067236,0.000000,3.067236,0.000000,-0.098358
LINE608,0.000000,-1.415824,0.000000,3.488005,0.000000,3.491413
LINE609,0.000000,3.212358,36.356963,3.328519,0.000000,4.691992
LINE610,18.389642,-0.831557,0.000000,3.292069,0.000000,1.529642
LINE611,18.305592,-0.833988,0.000000,0.938853,0.000000,-1.391349
LINE612,0.000000,-0.830234,18.016059,3.332575,0.000000,1.590861
LINE613,0.000000,-0.779664,0.000000,0.114558,17.475049,1.248932
LINE614,127.890991,-0.836061,109.265695,3.332541,70.127103,1.248753
LINE615,0.000000,-1.174667,18.170683,3.328577,0.000000,1.584350
LINE616,0.000000,4.355452,0.000000,4.355452,0.000000,0.670942
LINE617,0.000000,2.899569,0.000000,2.899569,0.000000,1.278399
LINE618,0.000000,0.514586,0.000000,-0.189560,17.348989,1.249846
LINE619,0.000000,-1.178652,0.000000,3.120964,0.000000,3.840622
LINE620,0.000000,3.169508,36.356963,3.328519,0.000000,4.692575
LINE621,18.305592,-0.833988,0.000000,1.458587,0.000000,4.678592
LINE622,0.000000,-0.829304,18.016059,3.332575,0.000000,1.581965
LINE623,0.000000,3.360981,18.050677,3.332106,0.000000,4.498031
LINE624,127.890991,-0.836061,91.215020,3.332627,70.127103,1.248753
LINE625,0.000000,-0.426289,18.170683,3.328577,0.000000,1.576654
LINE626,0.000000,-1.236687,0.000000,3.307244,0.000000,2.413365
LINE627,0.000000,3.166540,36.356963,3.328519,0.000000,4.692130
LINE628,18.305592,-0.833988,0.000000,2.773731,0.000000,-1.265681
LINE629,0.000000,-0.865693,18.016059,3.332575,0.000000,1.563640
LINE630,0.000000,3.412540,18.050677,3.332106,0.000000,4.531718
LINE631,127.890991,-0.836061,91.215020,3.332627,70.127103,1.248753
LINE632,0.000000,1.503278,18.170683,3.328577,0.000000,1.579303
LINE633,0.000000,4.312564,0.000000,3.141138,0.000000,3.070021
LINE634,0.000000,3.168768,36.356963,3.328519,0.000000,4.696090
LINE635,0.000000,-0.818065,18.016059,3.332575,0.000000,1.578519
LINE636,0.000000,3.053295,18.050677,3.332106,0.000000,4.407694
LINE637,127.890991,-0.836061,91.215020,3.332627,70.127103,1.248753
LINE638,0.000000,0.000000,18.170683,3.328577,0.000000,4.590237
LINE639,0.000000,4.695442,0.000000,3.089271,0.000000,3.000380
LINE640,0.000000,3.140438,36.356963,3.328519,0.000000,4.695810
LINE641,0.000000,-0.775853,18.016059,3.332575,0.000000,1.572616
LINE642,0.000000,-1.131451,18.050677,3.332106,0.000000,1.727389
LINE643,127.890991,-0.836061,91.215020,3.332627,70.127103,1.248753
LINE644,0.000000,-1.430079,0.000000,3.471673,0.000000,1.809493
LINE645,0.000000,3.174577,36.356963,3.328519,0.000000,4.694978
LINE646,0.000000,-0.771068,18.016059,3.332575,0.000000,1.575448
LINE647,0.000000,-0.771014,18.050677,3.332106,0.000000,2.001597
LINE648,127.890991,-0.836061,91.215020,3.332627,70.127103,1.248753
LINE649,0.000000,4.558899,0.000000,3.203428,0.000000,4.003528
LINE650,0.000000,2.931258,36.356963,3.328519,0.000000,4.690415
LINE651,0.000000,-0.851240,18.016059,3.332575,0.000000,1.571752
LINE652,0.000000,-0.223693,18.050677,3.332106,0.000000,4.150151
LINE653,127.890991,-0.836061,91.215020,3.332627,70.127103,1.248753
LINE654,0.000000,0.609193,0.000000,3.362057,0.000000,4.697065
LINE655,0.000000,1.979547,18.179031,3.328526,0.000000,4.675402
LINE656,0.000000,-0.487647,18.177932,3.328512,0.000000,1.559886
LINE657,0.000000,-0.823672,18.016059,3.332575,0.000000,1.565371
LINE658,0.000000,-0.023716,18.050677,3.332106,0.000000,2.817235
LINE659,127.890991,-0.836061,91.215020,3.332627,70.127103,1.248753
LINE660,0.000000,-0.460167,0.000000,2.825103,0.000000,3.820472
LINE661,0.000000,1.922674,18.179031,3.328526,0.000000,4.670317
LINE662,0.000000,0.304256,18.177932,3.328512,0.000000,1.499035
LINE663,0.000000,-0.829822,18.016059,3.332575,0.000000,1.550334
LINE664,0.000000,-0.212937,18.050677,3.332106,0.000000,3.802485
LINE665,127.890991,-0.836061,91.215020,3.332627,70.127103,1.248753
LINE666,0.000000,-1.027774,0.000000,2.424357,0.000000,2.807316
LINE667,0.000000,0.044071,18.179031,3.328526,0.000000,4.640217
LINE668,0.000000,0.005407,18.177932,3.328512,0.000000,1.480645
LINE669,0.000000,-0.748970,18.016059,3.332575,0.000000,1.547121
LINE670,0.000000,-1.430499,18.050677,3.332106,0.000000,1.374575
LINE671,54.724266,-0.837288,0.000000,-0.847069,0.000000,-1.465438
LINE672,73.166797,-0.835143,91.215020,3.332627,70.127103,1.248753
LINE673,0.000000,-0.858686,0.000000,2.171532,0.000000,1.276730
LINE674,0.000000,3.278657,18.179031,3.328526,0.000000,1.488400
LINE675,0.000000,1.793046,18.177932,3.328512,0.000000,1.402259
LINE676,0.000000,-0.776969,18.016059,3.332575,0.000000,1.555090
LINE677,0.000000,4.151139,18.050677,3.332106,0.000000,-1.532199
LINE678,54.724266,-0.837288,0.000000,-1.293952,0.000000,1.240311
LINE679,73.166797,-0.835143,91.215020,3.332627,70.127103,1.248753
LINE680,0.000000,-0.305977,0.000000,2.056736,0.000000,4.127497
LINE681,0.000000,2.389384,18.179031,3.328526,0.000000,1.591823
LINE682,0.000000,-0.842462,18.016059,3.332575,0.000000,1.569475
LINE683,0.000000,0.043696,18.050677,3.332106,0.000000,4.509844
LINE684,54.724266,-0.837288,0.000000,-1.492212,0.000000,-1.437427
LINE685,73.166797,-0.835143,91.215020,3.332627,70.127103,1.248753
LINE686,0.000000,-0.950813,18.016059,3.332575,0.000000,1.584408
LINE687,0.000000,0.023747,18.050677,3.332106,0.000000,1.581339
LINE688,54.724266,-0.837288,0.000000,-0.760889,0.000000,-1.458140
LINE689,0.000000,2.818061,0.000000,2.491737,35.017977,1.249115
LINE690,73.166797,-0.835143,91.215020,3.332627,35.109131,1.248393
LINE691,0.000000,-0.932419,18.016059,3.332575,0.000000,1.573617
LINE692,54.724266,-0.837288,0.000000,-0.608863,0.000000,-1.423017
LINE693,0.000000,2.838817,0.000000,2.412832,17.509641,1.249124
LINE694,0.000000,-0.582487,0.000000,3.488953,17.508336,1.249106
LINE695,0.000000,-0.552652,18.110146,3.331986,0.000000,1.483448
LINE696,73.166797,-0.835143,73.104878,3.332786,35.109131,1.248393
LINE697,0.000000,-0.888706,18.016059,3.332575,0.000000,1.553697
LINE698,54.724266,-0.837288,0.000000,-0.492369,0.000000,-1.447136
LINE699,0.000000,2.729883,0.000000,2.477715,17.509641,1.249124
LINE700,0.000000,2.760420,0.000000,-1.210494,17.508336,1.249106
LINE701,0.000000,3.833499,18.110146,3.331986,0.000000,-1.411449
LINE702,73.166797,-0.835143,73.104878,3.332786,35.109131,1.248393
LINE703,0.000000,-0.825226,18.016059,3.332575,0.000000,1.553122
LINE704,54.724266,-0.837288,0.000000,-0.309038,0.000000,-1.397787
LINE705,0.000000,2.501109,0.000000,2.501109,17.509641,1.249124
LINE706,73.166797,-0.835143,73.104878,3.332786,35.109131,1.248393
LINE707,0.000000,2.695075,0.000000,1.036279,0.000000,1.611052
LINE708,0.000000,-0.849513,18.016059,3.332575,0.000000,1.549689
LINE709,54.724266,-0.837288,0.000000,-0.354975,0.000000,-1.418434
LINE710,0.000000,2.281475,0.000000,3.046241,17.509641,1.249124
LINE711,36.642072,-0.834007,73.104878,3.332786,35.109131,1.248393
LINE712,36.524772,-0.836283,0.000000,4.689429,0.000000,1.534569
LINE713,0.000000,2.931541,0.000000,1.209052,0.000000,2.052302
LINE714,0.000000,-0.790609,18.016059,3.332575,0.000000,1.552780
LINE715,54.724266,-0.837288,0.000000,-0.352271,0.000000,-1.415212
LINE716,0.000000,2.596539,0.000000,2.592175,17.509641,1.249124
LINE717,36.642072,-0.834007,73.104878,3.332786,35.109131,1.248393
LINE718,36.524772,-0.836283,0.000000,4.691498,0.000000,1.541698
LINE719,0.000000,2.773220,0.000000,1.413499,0.000000,2.279733
LINE720,0.000000,-0.709999,18.016059,3.332575,0.000000,1.450152
LINE721,54.724266,-0.837288,0.000000,-0.355388,0.000000,-1.393295
LINE722,0.000000,2.815167,0.000000,1.114722,17.509641,1.249124
LINE723,36.642072,-0.834007,36.656466,3.332856,35.109131,1.248393
LINE724,0.000000,-0.262747,36.448412,3.332715,0.000000,1.604999
LINE725,36.524772,-0.836283,0.000000,-1.506470,0.000000,1.536679
LINE726,0.000000,3.147550,0.000000,1.166347,0.000000,2.588615
LINE727,0.000000,-0.807935,18.016059,3.332575,0.000000,-0.173716
LINE728,54.724266,-0.837288,0.000000,-0.424436,0.000000,-1.334522
LINE729,0.000000,2.741182,0.000000,0.125758,17.509641,1.249124
LINE730,36.642072,-0.834007,36.656466,3.332856,35.109131,1.248393
LINE731,0.000000,-0.253084,36.448412,3.332715,0.000000,1.605011
LINE732,36.524772,-0.836283,0.000000,4.610195,0.000000,1.546724
LINE733,0.000000,2.865726,0.000000,0.803247,0.000000,2.641472
LINE734,0.000000,-1.051713,18.016059,3.332575,0.000000,-1.405783
LINE735,54.724266,-0.837288,0.000000,-0.247931,0.000000,-1.401820
LINE736,0.000000,2.692853,0.000000,0.860180,17.509641,1.249124
LINE737,36.642072,-0.834007,36.656466,3.332856,35.109131,1.248393
LINE738,0.000000,-0.247493,36.448412,3.332715,0.000000,1.604965
LINE739,36.524772,-0.836283,0.000000,4.602820,0.000000,1.566616
LINE740,0.000000,2.971226,0.000000,0.547894,0.000000,3.221985
LINE741,0.000000,3.716991,18.016059,3.332575,0.000000,1.468791
LINE742,54.724266,-0.837288,0.000000,-0.252871,0.000000,-1.431595
LINE743,0.000000,2.819598,0.000000,4.594865,17.509641,1.249124
LINE744,36.642072,-0.834007,36.656466,3.332856,35.109131,1.248393
LINE745,0.000000,-0.875517,18.225041,3.332726,0.000000,4.617317
LINE746,0.000000,-0.340152,18.223372,3.332703,0.000000,1.574025
LINE747,36.524772,-0.836283,0.000000,4.695711,0.000000,1.557797
LINE748,0.000000,2.660894,0.000000,0.410893,0.000000,3.409222
LINE749,0.000000,4.160090,18.016059,3.332575,0.000000,1.346406
LINE750,54.724266,-0.837288,0.000000,-0.099755,0.000000,-1.487856
LINE751,0.000000,3.392759,0.000000,-0.644411,17.509641,1.249124
LINE752,36.642072,-0.834007,36.656466,3.332856,0.000000,1.588000
LINE753,0.000000,-0.325113,0.000000,3.543964,35.109131,1.248393
LINE754,0.000000,4.348696,18.225041,3.332726,0.000000,4.692750
LINE755,0.000000,-0.629630,18.223372,3.332703,0.000000,1.525767
LINE756,36.524772,-0.836283,0.000000,-1.372895,0.000000,1.547098
LINE757,0.000000,2.656736,0.000000,0.370122,0.000000,3.572382
LINE758,0.000000,4.157579,18.016059,3.332575,0.000000,-0.373622
LINE759,54.724266,-0.837288,0.000000,-0.047589,0.000000,-1.504344
LINE760,0.000000,2.898154,0.000000,1.459417,17.509641,1.249124
LINE761,36.642072,-0.834007,36.656466,3.332856,0.000000,1.588681
LINE762,0.000000,-0.319987,0.000000,3.544372,35.109131,1.248393
LINE763,0.000000,-0.300693,18.223372,3.332703,0.000000,1.721963
LINE764,36.524772,-0.836283,0.000000,-1.513942,0.000000,1.540955
LINE765,0.000000,2.563831,0.000000,0.463439,0.000000,3.706407
LINE766,0.000000,4.154585,18.016059,3.332575,0.000000,1.558483
LINE767,54.724266,-0.837288,0.000000,0.020332,0.000000,-1.512025
LINE768,0.000000,-0.309263,0.000000,4.519499,17.509641,1.249124
LINE769,36.642072,-0.834007,36.656466,3.332856,0.000000,1.599223
LINE770,0.000000,-1.368519,0.000000,3.187921,17.555639,1.248408
LINE771,0.000000,-0.237194,0.000000,3.500779,17.553492,1.248378
LINE772,0.000000,0.087209,18.223372,3.332703,0.000000,1.651151
LINE773,36.524772,-0.836283,0.000000,-1.550199,0.000000,1.545871
LINE774,0.000000,2.586882,0.000000,0.470223,0.000000,3.956274
LINE775,0.000000,3.517177,18.016059,3.332575,0.000000,4.567320
LINE776,54.724266,-0.837288,0.000000,0.023246,0.000000,-1.517958
LINE777,0.000000,3.551543,0.000000,3.121377,17.509641,1.249124
LINE778,36.642072,-0.834007,36.656466,3.332856,0.000000,1.611396
LINE779,0.000000,0.080932,0.000000,-0.784649,17.555639,1.248408
LINE780,0.000000,-0.234136,0.000000,3.556398,17.553492,1.248378
LINE781,0.000000,-0.249087,18.223372,3.332703,0.000000,4.097511
LINE782,36.524772,-0.836283,0.000000,4.669594,0.000000,1.542437
LINE783,0.000000,2.273957,0.000000,0.517848,0.000000,3.616858
LINE784,0.000000,1.812110,18.016059,3.332575,0.000000,-1.417881
LINE785,54.724266,-0.837288,0.000000,-0.227265,0.000000,-1.528042
LINE786,36.642072,-0.834007,36.656466,3.332856,0.000000,1.598922
LINE787,0.000000,-0.049757,0.000000,3.471947,17.553492,1.248378
LINE788,0.000000,-1.335765,18.223372,3.332703,0.000000,3.907460
LINE789,36.524772,-0.836283,0.000000,4.607729,0.000000,1.531849
LINE790,0.000000,3.122546,0.000000,0.152202,0.000000,2.801710
LINE791,36.482815,-0.837288,0.000000,-0.233427,0.000000,-1.548186
LINE792,18.241451,-0.837287,0.000000,-1.559723,0.000000,4.621415
LINE793,36.642072,-0.834007,36.656466,3.332856,0.000000,1.585961
LINE794,0.000000,0.343421,0.000000,3.348380,17.553492,1.248378
LINE795,0.000000,-0.816002,18.223372,3.332703,0.000000,4.251744
LINE796,36.524772,-0.836283,0.000000,-1.558139,0.000000,1.555010
LINE797,0.000000,3.175603,0.000000,0.254818,0.000000,4.574577
LINE798,36.482815,-0.837288,0.000000,-0.221483,0.000000,-1.136779
LINE799,18.241451,-0.837287,0.000000,3.643639,0.000000,1.545289
LINE800,36.642072,-0.834007,0.000000,-0.164327,0.000000,1.565840
LINE801,0.000000,0.825569,36.656466,3.332856,0.000000,-1.204249
LINE802,0.000000,0.609182,0.000000,3.334890,17.553492,1.248378
LINE803,0.000000,4.078165,18.223372,3.332703,0.000000,1.993353
LINE804,36.524772,-0.836283,0.000000,4.626195,0.000000,1.575557
LINE805,0.000000,2.735360,0.000000,0.119846,0.000000,-1.132276
LINE806,36.482815,-0.837288,0.000000,-0.502770,0.000000,-1.236035
LINE807,18.241451,-0.837287,0.000000,-1.506101,0.000000,1.566998
LINE808,36.642072,-0.834007,0.000000,-0.018764,0.000000,1.561241
LINE809,0.000000,0.660532,36.656466,3.332856,0.000000,-1.376357
LINE810,0.000000,0.344875,0.000000,3.338434,0.000000,3.816781
LINE811,0.000000,0.806390,0.000000,3.340383,17.553492,1.248378
LINE812,0.000000,2.784068,18.223372,3.332703,0.000000,4.433888
LINE813,36.524772,-0.836283,0.000000,-1.494367,0.000000,1.566028
LINE814,0.000000,-0.606184,0.000000,-0.217748,0.000000,1.411011
LINE815,36.482815,-0.837288,0.000000,0.040563,0.000000,-1.454929
LINE816,18.241451,-0.837287,0.000000,0.180189,0.000000,0.979954
LINE817,36.642072,-0.834007,0.000000,-0.092822,0.000000,1.580012
LINE818,0.000000,0.596586,36.656466,3.332856,0.000000,-1.270554
LINE819,0.000000,1.298919,0.000000,1.298919,0.000000,4.496786
LINE820,0.000000,3.774360,0.000000,3.420681,17.553492,1.248378
LINE821,36.524772,-0.836283,0.000000,-1.486442,0.000000,1.587408
LINE822,0.000000,3.276102,0.000000,-0.241081,0.000000,0.455677
LINE823,36.482815,-0.837288,0.000000,4.652419,0.000000,1.543872
LINE824,36.642072,-0.834007,0.000000,0.103008,0.000000,1.580426
LINE825,0.000000,0.678003,36.656466,3.332856,0.000000,-1.260904
LINE826,0.000000,-0.585767,0.000000,2.499390,0.000000,4.380730
LINE827,0.000000,0.074790,0.000000,3.466314,17.553492,1.248378
LINE828,36.524772,-0.836283,0.000000,-1.537714,0.000000,1.558170
LINE829,0.000000,3.942946,0.000000,-0.792528,0.000000,1.301038
LINE830,36.482815,-0.837288,0.000000,-0.985610,0.000000,1.530509
LINE831,36.642072,-0.834007,0.000000,0.258943,0.000000,1.607302
LINE832,0.000000,0.864635,36.656466,3.332856,0.000000,-1.365364
LINE833,0.000000,3.413968,0.000000,2.763051,0.000000,3.625981
LINE834,0.000000,-1.159614,0.000000,-0.622500,17.553492,1.248378
LINE835,36.524772,-0.836283,0.000000,4.685107,0.000000,1.555532
LINE836,36.482815,-0.837288,0.000000,-0.796807,0.000000,1.658939
LINE837,36.642072,-0.834007,0.000000,0.190051,0.000000,1.619179
LINE838,0.000000,-0.015802,36.656466,3.332856,0.000000,-1.461957
LINE839,0.000000,1.488147,0.000000,1.488147,0.000000,4.503256
LINE840,36.524772,-0.836283,0.000000,4.639021,0.000000,1.556463
LINE841,36.482815,-0.837288,0.000000,0.199706,0.000000,1.529618
LINE842,36.642072,-0.834007,0.000000,0.280458,0.000000,1.657806
LINE843,0.000000,-0.457227,36.656466,3.332856,0.000000,1.749307
LINE844,0.000000,2.078450,0.000000,2.547282,0.000000,-1.374399
LINE845,0.000000,-0.201681,0.000000,-0.201681,0.000000,2.996186
LINE846,36.524772,-0.836283,0.000000,4.653914,0.000000,1.561895
LINE847,36.482815,-0.837288,0.000000,2.699679,0.000000,1.558283
LINE848,36.642072,-0.834007,0.000000,0.208739,0.000000,3.962703
LINE849,0.000000,-0.531166,36.656466,3.332856,0.000000,1.868880
LINE850,0.000000,1.985827,0.000000,1.859716,0.000000,-1.399778
LINE851,0.000000,3.328140,0.000000,1.100976,0.000000,-1.383126
LINE852,36.524772,-0.836283,0.000000,4.667447,0.000000,1.565965
LINE853,36.482815,-0.837288,0.000000,1.833799,0.000000,1.515069
LINE854,36.642072,-0.834007,0.000000,0.180568,0.000000,-1.535046
LINE855,0.000000,-0.490373,36.656466,3.332856,0.000000,2.089475
LINE856,0.000000,1.972002,0.000000,1.956948,0.000000,-1.490703
LINE857,0.000000,-1.260088,0.000000,1.253836,0.000000,3.480582
LINE858,36.524772,-0.836283,0.000000,4.168154,0.000000,1.579699
LINE859,18.237567,-0.837340,0.000000,3.720641,0.000000,1.591541
LINE860,18.245248,-0.837236,0.000000,2.173317,0.000000,-1.505560
LINE861,36.642072,-0.834007,0.000000,0.191632,0.000000,-1.521349
LINE862,0.000000,-0.570362,36.656466,3.332856,0.000000,3.074074
LINE863,0.000000,1.833320,0.000000,2.537048,0.000000,-1.420173
LINE864,0.000000,2.872445,0.000000,-0.063389,0.000000,0.751774
LINE865,36.524772,-0.836283,0.000000,4.180341,0.000000,1.641163
LINE866,36.642072,-0.834007,0.000000,0.177277,0.000000,-1.536708
LINE867,0.000000,-0.531166,36.656466,3.332856,0.000000,1.688626
LINE868,0.000000,1.851127,0.000000,2.976432,0.000000,4.674679
LINE869,0.000000,1.415807,0.000000,1.472670,0.000000,2.608348
LINE870,36.524772,-0.836283,0.000000,4.114789,0.000000,4.520443
LINE871,36.642072,-0.834007,0.000000,0.163945,0.000000,-1.534919
LINE872,0.000000,0.177460,18.329868,3.332879,0.000000,4.598030
LINE873,0.000000,3.319053,18.326598,3.332834,0.000000,-1.560348
LINE874,0.000000,1.451642,0.000000,3.199747,0.000000,4.481095
LINE875,0.000000,1.546906,0.000000,1.546906,0.000000,-1.538412
LINE876,36.524772,-0.836283,0.000000,4.321292,0.000000,4.639295
LINE877,36.642072,-0.834007,0.000000,0.164514,0.000000,-1.531437
LINE878,0.000000,-0.312497,18.329868,3.332879,0.000000,4.660494
LINE879,0.000000,4.644870,18.326598,3.332834,0.000000,-0.067519
LINE880,0.000000,-0.079125,0.000000,2.955673,0.000000,1.267139
LINE881,0.000000,2.940837,0.000000,3.282269,0.000000,-1.103639
LINE882,36.524772,-0.836283,0.000000,-1.392540,0.000000,4.604915
LINE883,36.642072,-0.834007,0.000000,0.171601,0.000000,-1.550100
LINE884,0.000000,-0.067519,18.329868,3.332879,0.000000,-0.067519
LINE885,0.000000,0.000000,18.326598,3.332834,0.000000,0.000000
LINE886,36.524772,-0.836283,0.000000,4.505508,0.000000,4.675969
LINE887,18.321565,-0.833988,0.000000,0.172429,0.000000,-1.555408
LINE888,18.320507,-0.834027,0.000000,-1.256029,0.000000,4.381375
LINE889,0.000000,3.859472,18.329868,3.332879,0.000000,4.699503
LINE890,36.524772,-0.836283,0.000000,1.231273,0.000000,2.435592
LINE891,18.321565,-0.833988,0.000000,0.184326,0.000000,-1.533601
LINE892,18.320507,-0.834027,0.000000,4.091070,0.000000,1.908329
LINE893,0.000000,4.644870,18.329868,3.332879,0.000000,1.526711
LINE894,18.267676,-0.836211,0.000000,4.376664,0.000000,1.836203
LINE895,18.257097,-0.836354,0.000000,3.029583,0.000000,4.662206
LINE896,18.321565,-0.833988,0.000000,0.207487,0.000000,-1.556342
LINE897,18.320507,-0.834027,0.000000,-1.182983,0.000000,4.528237
LINE898,0.000000,0.000000,18.329868,3.332879,0.000000,3.074074
LINE899,18.267676,-0.836211,0.000000,3.160053,0.000000,1.489211
LINE900,18.321565,-0.833988,0.000000,0.149424,0.000000,-1.511588
LINE901,18.321565,-0.833988,0.000000,-0.062095,0.000000,-1.564742
LINE902,18.321565,-0.833988,0.000000,0.011926,0.000000,1.567295
LINE903,18.321565,-0.833988,0.000000,-0.262914,0.000000,1.774998
LINE904,18.321565,-0.833988,0.000000,3.394767,0.000000,1.586014
LINE905,18.321565,-0.833988,0.000000,-0.096173,0.000000,-1.533379
